13
	Energy:       7.4662406
O         -0.16867        5.72870       -0.18524
C         -0.80469        4.66849       -0.73057
O         -2.02568        4.65951       -0.78850
H         -0.65863        6.48439        0.16887
C         -0.02025        3.49607       -1.27220
N          1.41877        3.73609       -1.14829
H         -0.27438        3.36551       -2.34840
C         -0.39823        2.21880       -0.51476
H          1.67767        4.56861       -1.72691
H          1.94132        2.91862       -1.53960
H         -0.15419        2.32231        0.56459
H          0.16022        1.35105       -0.92560
H         -1.48455        2.01074       -0.62091
