17
	Energy:      10.8492857
O          1.53207        6.54038        0.50452
C          0.73867        6.35935       -0.57325
O         -0.29859        6.99650       -0.68181
H          1.29796        7.16642        1.20429
C          1.13721        5.37704       -1.64739
N          2.41827        5.79116       -2.21993
H          0.36959        5.37198       -2.45583
C          1.26098        3.94777       -1.07450
H          2.31558        6.74443       -2.63929
H          2.67777        5.13931       -2.99597
H          2.02681        3.94205       -0.26810
H          1.60665        3.26853       -1.88379
C         -0.02957        3.37658       -0.52778
O         -1.06703        4.02269       -0.56058
N         -0.03918        2.13063       -0.00108
H          0.82385        1.56837        0.03363
H         -0.91049        1.72614        0.37292
