16
	Energy:       9.6633395
O          1.41303        6.51730        0.49849
C          0.66561        6.28388       -0.60183
O         -0.37251        6.90415       -0.77812
H          1.14474        7.16866        1.16192
C          1.11456        5.26093       -1.61564
N          2.41421        5.66341       -2.15400
H          0.37839        5.21772       -2.45183
C          1.22376        3.85468       -0.98949
H          2.32203        6.59956       -2.61257
H          2.70823        4.98550       -2.89457
H          1.95631        3.86301       -0.15314
H          1.60609        3.15754       -1.76622
C         -0.10180        3.33394       -0.48467
O         -0.68384        3.91311        0.41880
O         -0.65003        2.21597       -1.00724
H         -0.22421        1.72042       -1.72046
