10
	Energy:       5.6626213
O         -0.20455        5.63284       -0.16840
C         -0.83496        4.55006       -0.67394
O         -2.05596        4.51241       -0.69587
H         -0.69871        6.38888        0.17908
C         -0.05123        3.38513       -1.21086
N          1.38579        3.61397       -1.09337
H         -0.31777        3.22248       -2.27862
H         -0.32326        2.47588       -0.63233
H          1.65509        4.42480       -1.69732
H          1.88593        2.77007       -1.45583
