20
	Energy:      46.0905225
O          1.07705        6.34710        0.53705
C          0.45265        6.10960       -0.63663
O         -0.58918        6.69113       -0.90102
H          0.71362        6.96602        1.18606
C          1.05501        5.14408       -1.62906
N          2.37026        5.64412       -2.03063
H          0.40989        5.07615       -2.53538
C          1.20636        3.73496       -1.01471
H          2.25980        6.58396       -2.47754
H          2.77853        5.00637       -2.75251
H          1.83696        3.80632       -0.10175
H          1.73239        3.08040       -1.74272
C         -0.08305        3.03920       -0.65766
C         -1.38240        3.47684       -0.84505
N         -0.11085        1.81797       -0.08627
N         -2.21007        2.52678       -0.38350
C         -1.42007        1.53723        0.06907
H         -3.25375        2.54988       -0.37955
H         -1.71321        4.40571       -1.28566
H         -1.79132        0.61949        0.50549
