22
	Energy:      16.1547757
O         -0.48357        5.39925        0.34166
C         -0.66762        4.95834       -0.92136
O         -1.47412        5.51546       -1.65151
H         -0.98166        6.15149        0.69166
C          0.12548        3.77736       -1.43184
N          1.54883        4.13061       -1.39160
H         -0.16350        3.58116       -2.49112
C         -0.17749        2.49993       -0.58194
H          1.69355        5.03403       -1.89969
H          2.10461        3.42592       -1.92489
H          0.09822        2.70760        0.47645
C          0.66287        1.29666       -1.05872
C         -1.69660        2.16672       -0.64073
H         -2.27764        3.04166       -0.28011
C         -2.11651        0.98654        0.23825
H         -1.99977        1.96161       -1.69072
H          1.74807        1.49924       -0.96468
H          0.42699        1.04763       -2.11516
H          0.48364        0.40479       -0.42760
H         -1.83224        1.17310        1.29536
H         -1.66368        0.03616       -0.10756
H         -3.21882        0.86437        0.18388
