20
	Energy:      19.5936727
O          2.18766        6.62494        0.49616
C          1.21243        6.72720       -0.43256
O          0.23889        7.43506       -0.22110
H          2.13616        7.10189        1.33647
C          1.32724        5.97160       -1.73300
N          2.53159        6.41113       -2.43777
H          0.43884        6.19107       -2.36986
C          1.39233        4.44992       -1.48927
H          2.46182        7.43698       -2.63198
H          2.58884        5.92495       -3.36229
H          2.28043        4.20842       -0.86419
H          1.50847        3.93812       -2.47006
C          0.12762        3.90674       -0.81489
H          0.00987        4.37849        0.18379
S          0.28014        2.10093       -0.60670
H         -0.74763        4.13071       -1.46224
C         -1.35121        1.90716        0.17649
H         -1.39294        2.47252        1.13079
H         -1.50039        0.83331        0.41137
H         -2.15640        2.21731       -0.52178
