23
	Energy:      24.0613639
O          0.31425        5.09209        0.70972
C         -0.35450        4.94552       -0.45455
O         -1.26202        5.71412       -0.73664
H          0.08562        5.79109        1.33834
C          0.03788        3.84745       -1.41545
N          1.42137        4.07174       -1.83667
H         -0.61162        3.87400       -2.32025
C         -0.07565        2.45614       -0.74862
H          1.49025        5.00024       -2.31459
H          1.69379        3.34461       -2.53762
H          0.57233        2.45771        0.15592
H          0.32921        1.69502       -1.45110
C         -1.46281        1.98291       -0.34776
C         -2.64926        2.69786       -0.61776
C         -1.56010        0.74975        0.32230
C         -3.88967        2.19080       -0.21758
C         -3.96640        0.96891        0.45234
C         -2.80228        0.24816        0.72093
H         -2.63944        3.63968       -1.14107
H         -2.86156       -0.70072        1.23815
H         -0.66782        0.17504        0.53978
H         -4.79406        2.74652       -0.42976
H         -4.92798        0.57949        0.76050
