17
	Energy:      37.2808567
C         -0.99963        4.42687        0.74606
C         -1.87283        3.40772        1.43357
H         -1.69766        3.46950        2.53253
C         -1.25693        2.12501        0.89895
H         -2.96156        3.50677        1.23797
N          0.19684        2.35711        0.83182
H         -1.64544        1.96615       -0.13488
H         -1.51822        1.23580        1.51008
C          0.36765        3.81138        1.01820
H         -1.11697        5.46451        1.12523
H         -1.21241        4.40909       -0.34845
C          1.47042        4.43110        0.19092
H          0.61355        3.97461        2.09302
O          1.69714        5.62747        0.29574
O          2.21673        3.68160       -0.64848
H          2.92737        4.07107       -1.17672
H          0.51693        2.04113       -0.11273
