14
	Energy:      11.1839719
O          2.12381        6.55699        0.51631
C          1.17136        6.67342       -0.43413
O          0.21430        7.41130       -0.25261
H          2.06825        7.04634        1.34929
C          1.29079        5.89668       -1.72014
N          2.52147        6.28416       -2.40898
H          0.41973        6.12724       -2.37619
C          1.30083        4.38598       -1.43960
H          2.48574        7.30711       -2.62656
H          2.58164        5.77576       -3.32135
H          2.17723        4.10022       -0.81193
H          1.40247        3.83090       -2.39645
O          0.10113        3.98366       -0.83285
H          0.22299        4.08856        0.14681
