17
	Energy:      14.4667038
O          2.10838        6.63912        0.56938
C          1.16333        6.74824       -0.38939
O          0.20293        7.48434       -0.21906
H          2.04523        7.13237        1.39944
C          1.29715        5.96553       -1.67282
N          2.53251        6.37334       -2.34767
H          0.42833        6.20036       -2.33089
C          1.29396        4.44614       -1.36265
H          2.52233        7.41093       -2.48362
H          2.56399        5.96101       -3.30663
H          2.17150        4.19251       -0.72004
C          1.40159        3.57914       -2.62069
O          0.09777        4.10390       -0.70706
H          0.27243        4.14412        0.26924
H          2.36284        3.74610       -3.14748
H          0.55969        3.79322       -3.31290
H          1.36304        2.50597       -2.33653
