27
	Energy:      62.1219193
O          0.73713        6.27393       -0.60356
C          0.34069        5.48188       -1.62314
O         -0.68973        5.73522       -2.22949
H          0.21397        7.03961       -0.32699
C          1.19577        4.31812       -2.04424
N          2.52615        4.81964       -2.39436
H          0.74949        3.83860       -2.94674
C          1.31827        3.23339       -0.94928
H          2.44070        5.51314       -3.17346
H          3.11518        4.03171       -2.75009
H          1.74673        3.62884       -0.00338
H          2.03634        2.48099       -1.34375
C          0.02833        2.49400       -0.68297
C         -1.09769        2.89211        0.02494
C         -0.24566        1.20066       -1.12324
C         -1.99122        1.84847       -0.03543
N         -1.48098        0.82000       -0.73207
H          0.41951        0.57685       -1.70630
C         -1.40270        4.06038        0.72732
C         -3.24228        1.90945        0.57696
H         -1.94146       -0.09635       -0.92907
C         -2.65774        4.14953        1.35572
C         -3.57476        3.08063        1.27810
H         -0.70376        4.87461        0.80662
H         -2.92004        5.04324        1.90688
H         -3.93493        1.07974        0.51931
H         -4.53674        3.15978        1.76755
