24
	Energy:      22.8056017
O          0.14712        5.60725        0.45114
C         -0.32601        5.14942       -0.72767
O         -1.32794        5.64742       -1.21901
H         -0.29334        6.32460        0.92775
C          0.38859        4.03252       -1.44206
N          1.75269        4.46859       -1.74433
H         -0.13355        3.81026       -2.40147
C          0.43253        2.73142       -0.60607
H          1.71652        5.32251       -2.34816
H          2.24244        3.72606       -2.29459
H          0.94206        2.90341        0.36695
H          1.05637        2.00724       -1.17518
C         -0.92843        2.10529       -0.36657
C         -1.89071        2.72608        0.45162
C         -1.23982        0.86541       -0.95493
C         -3.13605        2.12702        0.66395
C         -2.48589        0.26903       -0.74137
C         -3.43944        0.89967        0.06849
H         -1.68471        3.66798        0.93795
H         -3.86552        2.61761        1.29601
H         -2.70786       -0.68356       -1.20557
O         -4.64504        0.33587        0.28401
H         -0.52005        0.35742       -1.58454
H         -4.89367       -0.51320       -0.10831
