19
	Energy:      17.1353036
O         -0.10666        5.87369       -0.18222
C         -0.75691        4.82639       -0.73727
O         -1.97139        4.87606       -0.85727
H         -0.58204        6.65363        0.13756
C          0.02047        3.62338       -1.25263
N          1.45897        3.91264       -1.16371
H         -0.23707        3.49003       -2.32828
C         -0.32831        2.31099       -0.46803
H          1.66247        4.81198       -1.65881
H          1.99900        3.19552       -1.69650
H         -0.09639        2.46450        0.60941
C          0.50456        1.10865       -0.95321
C         -1.81570        1.92513       -0.58566
H         -2.47973        2.68365       -0.13116
H         -2.01166        0.98125       -0.03285
H         -2.09891        1.77710       -1.65002
H          1.58776        1.26335       -0.77748
H          0.32967        0.91976       -2.03417
H          0.22907        0.19504       -0.38357
