24
	Energy:      17.1057745
C         -0.71142       -1.92240       -0.73378
C         -1.45714       -1.58340        0.56497
H         -1.02331       -2.19149        1.38975
H         -2.52938       -1.86244        0.47514
C         -1.31905       -0.08721        0.91633
C         -2.09042        0.77916       -0.06377
O         -1.54298        1.67474       -0.69054
O         -3.41613        0.57481       -0.21898
H         -3.94324        1.11337       -0.82608
H         -1.78902        0.08311        1.90957
C          0.18346        0.27713        1.02296
C          0.96662       -0.07706       -0.26727
C          2.43025        0.29284       -0.11063
O          3.30301       -0.55887       -0.18680
O          2.79177        1.57696        0.09986
H          2.14191        2.29195        0.14174
C          0.77728       -1.57692       -0.59149
H          1.30099       -1.82869       -1.53946
H          1.21398       -2.19697        0.22347
H          0.57374        0.50782       -1.12458
H          0.28194        1.35627        1.26935
H          0.62414       -0.29844        1.86796
H         -1.15075       -1.35694       -1.58434
H         -0.81822       -3.00729       -0.94905

