24
	Energy:      11.4913954
C         -0.72796       -0.96256       -0.85381
C          0.75878       -1.15610       -0.52255
C          1.44039        0.20617       -0.28472
C          2.90146        0.01958        0.03529
O          3.24274       -0.61671        1.02233
O          3.83711        0.55926       -0.77437
H          4.78207        0.45548       -0.59339
C          0.72789        0.96278        0.85406
C         -0.75885        1.15633        0.52279
C         -1.44044       -0.20595        0.28498
C         -2.90152       -0.01936       -0.03500
O         -3.24283        0.61692       -1.02204
O         -3.83715       -0.55903        0.77470
H         -4.78212       -0.45524        0.59376
H         -1.35967       -0.81025        1.21693
H         -1.25467        1.68680        1.36487
H         -0.84812        1.78932       -0.38842
H          1.20148        1.95771        1.00301
H          0.81629        0.38927        1.80392
H          1.35963        0.81047       -1.21667
H          1.25461       -1.68657       -1.36462
H          0.84805       -1.78911        0.38867
H         -1.20154       -1.95748       -1.00275
H         -0.81636       -0.38904       -1.80367

