18
	Energy:      32.9593466
C         -1.77741       -0.96081        0.01701
C         -2.80398       -0.03018        0.12328
C         -2.51344        1.32178        0.14290
C         -1.19455        1.75123        0.05600
C         -0.11156        0.84191       -0.05424
C         -0.41797       -0.57293       -0.07395
C          0.55862       -1.71359       -0.18131
O          1.75933       -1.54185       -0.26048
O          0.10186       -2.98696       -0.18954
H          0.70193       -3.74357       -0.25661
C          1.25420        1.48010       -0.13986
O          1.35099        2.69972       -0.10576
O          2.39057        0.77148       -0.25579
H          3.25703        1.19986       -0.31020
H         -1.03071        2.82147        0.07610
H         -3.31481        2.04501        0.22585
H         -3.83216       -0.36243        0.19104
H         -2.06774       -2.00361        0.00736

