32
	Energy:      15.1018086
O         -5.60627        0.70747        0.98044
C         -5.39758        1.25659       -0.23541
O         -6.34759        1.43263       -0.98149
C         -4.01229        1.63711       -0.68599
C         -3.41598        2.72132        0.22486
C         -2.02876        3.20321       -0.23169
C         -0.95144        2.10942       -0.16347
C          0.41977        2.66993       -0.57315
C          1.53440        1.60962       -0.58419
C          1.82794        1.02655        0.80813
C          3.04817        0.08873        0.86556
C          2.90077       -1.17625        0.05429
O          2.82087       -2.25076        0.62823
O          2.91940       -1.15773       -1.29568
H          3.08554       -0.34984       -1.79910
H          3.97127        0.62214        0.55279
H          3.17178       -0.19566        1.93424
H          0.94232        0.47614        1.18910
H          2.03638        1.87281        1.49904
H          1.24159        0.80468       -1.28822
H          2.45880        2.10012       -0.96011
H          0.70760        3.50156        0.10695
H          0.33673        3.08003       -1.60379
H         -0.90890        1.72333        0.87620
H         -1.21017        1.27757       -0.85100
H         -1.72510        4.03597        0.44025
H         -2.09890        3.60261       -1.26732
H         -3.34801        2.35306        1.27143
H         -4.09812        3.59994        0.21152
H         -4.05625        2.02696       -1.72707
H         -3.38518        0.72244       -0.67609
H         -4.87875        0.53160        1.59295

