24
	Energy:      15.9543870
C         -2.69843       -0.70273       -0.31211
C         -2.70065        0.69476        0.31122
C         -1.44975        1.46745       -0.11867
C         -0.16267        0.72239        0.29928
C          1.03260        1.55360       -0.13085
O          1.85759        1.11671       -0.92104
O          1.18150        2.80115        0.36432
H          1.92942        3.36018        0.11015
C         -0.16038       -0.72259       -0.29949
C          1.03732       -1.55014        0.13095
O          1.86075       -1.11074        0.92136
O          1.19016       -2.79723       -0.36418
H          1.93972       -3.35397       -0.10981
C         -1.44529       -1.47159        0.11811
H         -1.47002       -2.48016       -0.34965
H         -1.46021       -1.60148        1.22372
H         -0.14242       -0.64049       -1.40969
H         -0.14476        0.64034        1.40947
H         -1.47770        2.47594        0.34909
H         -1.46478        1.59730       -1.22429
H         -3.60886        1.24577       -0.01493
H         -2.72428        0.61008        1.42023
H         -3.60503       -1.25652        0.01379
H         -2.72203       -0.61813       -1.42113

