20
	Energy:       9.8172621
C          2.60758       -1.36678       -0.23626
O          2.69333       -0.25919        0.27021
O          3.23661       -1.60837       -1.40617
H          3.19391       -2.47143       -1.84085
C          1.81086       -2.44632        0.45153
C          0.33389       -2.06049        0.62447
C         -0.37606       -1.86629       -0.72575
C         -1.89096       -1.60925       -0.62564
C         -2.26031       -0.32414        0.07575
O         -2.76999        0.58269       -0.56321
O         -2.10140       -0.17404        1.40818
H         -1.80276       -0.89561        1.97733
H         -2.26654       -1.55514       -1.67167
H         -2.40401       -2.46084       -0.12966
H         -0.24294       -2.79568       -1.32218
H          0.09653       -1.02889       -1.28385
H          0.28517       -1.13075        1.22657
H         -0.17270       -2.87866        1.18131
H          2.25659       -2.62474        1.45370
H          1.87333       -3.39609       -0.12257

