38
	Energy:      16.4591544
C          5.43679       -2.80628       -0.57659
O          5.03667       -3.31786       -1.61042
O          6.17811       -3.54092        0.27987
H          6.51418       -3.17415        1.10944
C          5.10555       -1.36675       -0.27509
C          3.59155       -1.12474       -0.18576
C          2.94599       -1.91037        0.97027
C          1.44724       -1.61492        1.14525
C          0.59463       -2.06102       -0.05281
C         -0.89480       -1.80534        0.21022
C         -1.74841       -2.25919       -0.98422
C         -3.25900       -2.09183       -0.75039
C         -3.69104       -0.61977       -0.60188
C         -5.21684       -0.45824       -0.47721
C         -5.81574       -1.01118        0.79653
O         -5.11576       -1.51910        1.65853
O         -7.14650       -0.92485        1.00246
H         -7.73476       -0.52281        0.34792
H         -5.70411       -0.94182       -1.35121
H         -5.45458        0.62678       -0.50739
H         -3.36798       -0.07582       -1.51642
H         -3.20826       -0.14157        0.27559
H         -3.78337       -2.51927       -1.63302
H         -3.55129       -2.68621        0.13947
H         -1.55472       -3.33986       -1.16263
H         -1.45024       -1.69927       -1.89777
H         -1.03966       -0.71993        0.39163
H         -1.20852       -2.36816        1.11686
H          0.89321       -1.50018       -0.96297
H          0.75425       -3.14758       -0.22908
H          1.10058       -2.16663        2.04667
H          1.30328       -0.52746        1.32866
H          3.45715       -1.62285        1.91519
H          3.08681       -3.00274        0.82000
H          3.42525       -0.03859       -0.01597
H          3.12902       -1.40139       -1.15607
H          5.58027       -1.05407        0.68011
H          5.52473       -0.73414       -1.08680

