14
	Energy:       7.3928520
C         -1.57717       -0.05664        0.09790
O         -1.17826       -0.91786        0.86913
O         -2.82738       -0.13462       -0.40407
H         -3.42088       -0.86278       -0.17140
C         -0.70179        1.10679       -0.29853
C          0.70064        1.09524        0.33955
C          1.57631       -0.05262       -0.09937
O          1.17760       -0.88502       -0.90173
O          2.82654       -0.14868        0.39941
H          3.42022       -0.86766        0.14014
H          0.59801        1.07637        1.44611
H          1.21879        2.03662        0.05703
H         -0.59916        1.12862       -1.40503
H         -1.22018        2.03703        0.01839

