18
	Energy:      17.4132080
C         -1.26978       -1.10118       -0.01978
C          0.04509       -1.52440        0.19508
C          1.10796       -0.60530        0.15142
C          0.82657        0.74578       -0.11177
C         -0.48840        1.16903       -0.32665
C         -1.55124        0.24981       -0.28298
C         -2.94849        0.69435       -0.51041
O         -3.19350        1.87017       -0.73948
O         -3.96139       -0.19852       -0.46591
H         -4.87967        0.07014       -0.61134
H         -0.67200        2.21731       -0.52712
H          1.62245        1.47889       -0.15220
C          2.50502       -1.05047        0.37893
O          2.74937       -2.22644        0.60797
O          3.51844       -0.15824        0.33455
H          4.43650       -0.42771        0.48006
H          0.22857       -2.57269        0.39553
H         -2.06558       -1.83436        0.02066
