10
	Energy:       9.0899128
C         -1.10335       -0.36016        0.28187
O         -2.07849        0.47454       -0.28238
H         -1.72382        1.40071       -0.23755
C         -0.03344       -0.71328       -0.75053
O          0.61535        0.44144       -1.20971
H          1.25149        0.71229       -0.49717
H          0.70555       -1.42320       -0.31447
H         -0.50708       -1.22360       -1.61586
H         -1.59714       -1.29205        0.62936
H         -0.64428        0.11860        1.17710

